/*--------------------------------*- C++ -*----------------------------------*\
| =========                 |                                                 |
| \\      /  F ield         | OpenFOAM: The Open Source CFD Toolbox           |
|  \\    /   O peration     | Version:  v1812                                 |
|   \\  /    A nd           | Web:      www.OpenFOAM.com                      |
|    \\/     M anipulation  |                                                 |
\*---------------------------------------------------------------------------*/
FoamFile
{
    version     2.0;
    format      ascii;
    class       polyBoundaryMesh;
    location    "0.005/polyMesh";
    object      boundary;
}
// * * * * * * * * * * * * * * * * * * * * * * * * * * * * * * * * * * * * * //

7
(
    topY
    {
        type            patch;
        nFaces          0;
        startFace       715352;
    }
    bottomY
    {
        type            patch;
        nFaces          0;
        startFace       715352;
    }
    topX
    {
        type            patch;
        nFaces          0;
        startFace       715352;
    }
    bottomX
    {
        type            patch;
        nFaces          0;
        startFace       715352;
    }
    topZ
    {
        type            patch;
        nFaces          0;
        startFace       715352;
    }
    bottomZ
    {
        type            patch;
        nFaces          0;
        startFace       715352;
    }
    simple_cylinder.stl
    {
        type            wall;
        inGroups        1(wall);
        nFaces          43705;
        startFace       715352;
    }
)

// ************************************************************************* //
