/*--------------------------------*- C++ -*----------------------------------*\
| =========                 |                                                 |
| \\      /  F ield         | OpenFOAM: The Open Source CFD Toolbox           |
|  \\    /   O peration     | Version:  v1812                                 |
|   \\  /    A nd           | Web:      www.OpenFOAM.com                      |
|    \\/     M anipulation  |                                                 |
\*---------------------------------------------------------------------------*/
FoamFile
{
    version     2.0;
    format      ascii;
    class       dictionary;
    object      topoSetDict;
}
// * * * * * * * * * * * * * * * * * * * * * * * * * * * * * * * * * * * * * //

actions
(

// so here i want to make 3 parts of the patch. so i need to chisel out each section from the whole 
// set of boundary cells, so that's three templates i can chisel out of
    
// Firstly i take the basic patch and turn it into a set of faces.
    {
	name 	fullCylinderSurface;
	type	faceSet;
	action	new;
	source 	patchToFace;
	sourceInfo
	{
	   name "simple_cylinder.stl";
	}
    }

// now i want to make the inlet negatives so that i can subtract the faces from the fullCylinderSurface set later
    {
        name    inletNegativeCell;
        type    cellSet;
        action  new;
        source  boxToCell;
        sourceInfo
        {
                box (1.0e-1 -10.1 -0.1) (100.1 10.1 20.1);
        }
    }
    
    {
        name    inletNegativeFace;
        type    faceSet;
        action  new;
        source  cellToFace;
        sourceInfo
        {
                set 	inletNegativeCell;
		option	all;
        }
    }

// now i want to do outlet negatives. for purpose of exposure, i'll use cylinderToCell. i'll make the radius 10.1 to ensure all is covered
    {
        name    outletNegativeCell;
        type    cellSet;
        action  new;
        source  cylinderToCell;
	sourceInfo
        {
                p1 (-1.0e-1 -0.0 10.0);
		p2  (99.9 0.0 10.0);
		radius 10.1;
        }
    }


    {
        name    outletNegativeFace;
        type    faceSet;
        action  new;
        source  cellToFace;
        sourceInfo
        {
		set outletNegativeCell;
		option	all; 

        }
    }

// now it is time, we can start making the inlet patches
    {
	name 	inlet;
        type    faceSet;
        action  new;
        source  faceToFace;
	sourceInfo
	{
		set fullCylinderSurface;
	}	
    }

    {
        name    inlet;
        type    faceSet;
        action  delete;
        source  faceToFace;
	sourceInfo
        {
                set inletNegativeFace;
        }
    }
// and now we can also make the outlet patches

    {
        name    outlet;
        type    faceSet;
        action  new;
        source  faceToFace;
	sourceInfo
        {
                set fullCylinderSurface;
        }
    }

    {
        name    outlet;
        type    faceSet;
        action  delete;
        source  faceToFace;
	sourceInfo
        {
                set outletNegativeFace;
        }
    }
// lastly we can have the curved wall segments

 {
        name    wall;
        type    faceSet;
        action  new;
        source  faceToFace;
	sourceInfo
        {
                set fullCylinderSurface;
        }
    }

{
        name    wall;
        type    faceSet;
        action  delete;
        source  faceToFace;
	sourceInfo
        {
                set outlet;
        }
    }

{
        name    wall;
        type    faceSet;
        action  delete;
        source  faceToFace;
	sourceInfo
        {
                set inlet;
        }
    }


);

// ************************************************************************* //
